*SPEF "IEEE 1481-1998"
*DESIGN "voting_machine"
*DATE "Thu Jul 18 14:09:49 2024"
*VENDOR "Cadence Design Systems, Inc."
*PROGRAM "Innovus"
*VERSION "21.15-s110_1"
*DESIGN_FLOW "PIN_CAP NONE" "NAME_SCOPE LOCAL"
*DIVIDER /
*DELIMITER :
*BUS_DELIMITER []
*T_UNIT 1 NS
*C_UNIT 1 PF
*R_UNIT 1 OHM
*L_UNIT 1 HENRY

// MMMC spef file for corner 'rccorners'

*NAME_MAP

*1 FE_OFN1_n_43
*2 FE_OFN0_n_43
*3 clk
*4 reset
*5 mode[1]
*6 mode[0]
*7 count_candidate_1[7]
*8 count_candidate_1[6]
*9 count_candidate_1[5]
*10 count_candidate_1[4]
*11 count_candidate_1[3]
*12 count_candidate_1[2]
*13 count_candidate_1[1]
*14 count_candidate_1[0]
*15 count_candidate_2[7]
*16 count_candidate_2[6]
*17 count_candidate_2[5]
*18 count_candidate_2[4]
*19 count_candidate_2[3]
*20 count_candidate_2[2]
*21 count_candidate_2[1]
*22 count_candidate_2[0]
*23 count_candidate_3[7]
*24 count_candidate_3[6]
*25 count_candidate_3[5]
*26 count_candidate_3[4]
*27 count_candidate_3[3]
*28 count_candidate_3[2]
*29 count_candidate_3[1]
*30 count_candidate_3[0]
*31 candidate_1
*32 candidate_2
*33 candidate_3
*34 SE
*35 scan_in
*36 scan_out
*37 vote_1[7]
*38 vote_1[6]
*39 vote_1[5]
*40 vote_1[4]
*41 vote_1[3]
*42 vote_1[2]
*43 vote_1[1]
*44 vote_1[0]
*45 vote_2[7]
*46 vote_2[6]
*47 vote_2[5]
*48 vote_2[4]
*49 vote_2[3]
*50 vote_2[2]
*51 vote_2[1]
*52 vote_2[0]
*53 vote_3[6]
*54 vote_3[5]
*55 vote_3[4]
*56 vote_3[3]
*57 vote_3[2]
*58 vote_3[1]
*59 vote_3[0]
*60 state[1]
*61 state[0]
*62 next_state[1]
*63 next_state[0]
*64 n_0
*65 n_1
*66 n_2
*67 n_3
*68 n_4
*69 n_5
*70 n_6
*71 n_7
*72 n_8
*73 n_9
*74 n_10
*75 n_11
*76 n_12
*77 n_13
*78 n_14
*79 n_15
*80 n_16
*81 n_17
*82 n_18
*83 n_19
*84 n_20
*85 n_21
*86 n_22
*87 n_23
*88 n_24
*89 n_25
*90 n_26
*91 n_35
*92 n_37
*93 n_38
*94 n_43
*95 n_47
*96 n_50
*97 n_51
*98 n_52
*99 n_53
*100 n_54
*101 n_57
*102 n_60
*103 n_63
*104 n_64
*105 n_65
*106 n_66
*107 n_67
*108 n_68
*109 n_69
*110 n_70
*111 n_71
*112 n_72
*113 n_73
*114 n_74
*115 n_75
*116 n_76
*117 n_77
*118 n_78
*119 n_79
*120 n_80
*121 n_81
*122 n_82
*123 n_83
*124 n_84
*125 n_85
*126 n_86
*127 n_87
*128 n_88
*129 n_89
*130 n_90
*131 n_91
*132 n_92
*133 n_93
*134 n_94
*135 n_95
*136 n_96
*137 n_97
*138 n_98
*139 n_99
*140 in_candidate_1
*141 in_candidate_2
*142 in_candidate_3
*143 FE_OFC1_n_43
*144 FE_OFC0_n_43
*145 vote_1_reg\[7\]
*146 vote_2_reg\[7\]
*147 vote_3_reg\[7\]
*148 vote_2_reg\[6\]
*149 vote_3_reg\[6\]
*150 vote_1_reg\[6\]
*151 g971__2398
*152 g969__5107
*153 g970__6260
*154 vote_1_reg\[5\]
*155 vote_3_reg\[5\]
*156 vote_2_reg\[5\]
*157 state_reg\[1\]
*158 g978
*159 g980
*160 g981
*161 vote_2_reg\[4\]
*162 vote_3_reg\[4\]
*163 vote_1_reg\[4\]
*164 g975__4319
*165 g983__8428
*166 g976__5526
*167 g977__6783
*168 g979__3680
*169 g982__1617
*170 g1036__2802
*171 g990__1705
*172 g991__5122
*173 vote_2_reg\[3\]
*174 vote_1_reg\[3\]
*175 g992__8246
*176 vote_3_reg\[3\]
*177 g1001
*178 g1000
*179 g987__7098
*180 g988__6131
*181 g999
*182 g989__1881
*183 vote_3_reg\[2\]
*184 vote_2_reg\[2\]
*185 vote_1_reg\[2\]
*186 g1002__5115
*187 g1003__7482
*188 next_state_reg\[1\]
*189 g1004__4733
*190 next_state_reg\[0\]
*191 g996__6161
*192 g997__9315
*193 g998__9945
*194 g1011__2883
*195 g1068__2346
*196 g1047__1666
*197 g1053__7410
*198 g1054__6417
*199 g1042__5477
*200 g1056__2398
*201 vote_1_reg\[1\]
*202 g1013__5107
*203 vote_3_reg\[1\]
*204 vote_2_reg\[1\]
*205 g1012__6260
*206 g1044__4319
*207 g1067__8428
*208 g1043__5526
*209 g1049__6783
*210 g1052__3680
*211 g1062__1617
*212 g1071__2802
*213 g1045__1705
*214 g1046__5122
*215 g1020
*216 g1021
*217 g1010__8246
*218 g1008__7098
*219 vote_1_reg\[0\]
*220 g1009__6131
*221 g1066__1881
*222 g1022
*223 g1048__5115
*224 g1064__7482
*225 g1050__4733
*226 g1063__6161
*227 g1057__9315
*228 g1055__9945
*229 g1051__2883
*230 g1069__2346
*231 vote_2_reg\[0\]
*232 vote_3_reg\[0\]
*233 g1061__1666
*234 g1065__7410
*235 g1077
*236 g1023__6417
*237 g1024__5477
*238 g1025__2398
*239 g1017__5107
*240 g1078__6260
*241 g1018__4319
*242 g1019__8428
*243 g1032__5526
*244 g1033__6783
*245 g1034__3680
*246 g1058
*247 g1035__1617
*248 g1030__2802
*249 g1060
*250 g1059
*251 g1031__1705
*252 state_reg\[0\]
*253 g1070__5122
*254 g1072__8246
*255 g1073__7098
*256 g1074__6131
*257 g1075__1881
*258 g1076__5115
*259 g1081__7482
*260 g1082__4733
*261 g1080__6161
*262 g1083__9315
*263 g1084
*264 g1091
*265 g1088
*266 g1085
*267 g1093
*268 g1090
*269 g1092
*270 g1087
*271 g1086
*272 g1089


*PORTS

*3 I *C 7.3 38.38
*4 I *C 9.5 38.38
*5 I *C 42 17
*6 I *C 42 19.2
*140 I *C 42 25.8
*141 I *C 42 23.6
*142 I *C 42 21.4
*7 O *C 0 26.1
*8 O *C 7.3 0
*9 O *C 9.5 0
*10 O *C 11.7 0
*11 O *C 13.9 0
*12 O *C 16.1 0
*13 O *C 18.3 0
*14 O *C 20.5 0
*15 O *C 0 8.5
*16 O *C 0 10.7
*17 O *C 0 12.9
*18 O *C 0 15.1
*19 O *C 0 17.3
*20 O *C 0 19.5
*21 O *C 0 21.7
*22 O *C 0 23.9
*23 O *C 11.7 38.38
*24 O *C 13.9 38.38
*25 O *C 16.1 38.38
*26 O *C 18.3 38.38
*27 O *C 20.5 38.38
*28 O *C 22.7 38.38
*29 O *C 24.9 38.38
*30 O *C 0 6.3
*31 O *C 42 14.8
*32 O *C 42 12.6
*33 O *C 42 10.4
*34 I *C 22.7 0
*35 I *C 24.9 0
*36 O *C 42 8.2


*D_NET *1 0.0105953

*CONN
*I *225:B I *C 17.9 32.015 *L 0.00021 *D AND2XL
*I *211:B I *C 17.5 14.915 *L 0.00021 *D AND2XL
*I *228:B I *C 21.7 32.015 *L 0.00021 *D AND2XL
*I *210:B I *C 13.1 32.015 *L 0.00021 *D AND2XL
*I *143:Y O *C 17.13 16.68 *L 0 *D INVX2
*I *235:A I *C 10.9 31.825 *L 0.000801 *D INVX2
*I *223:B I *C 11.7 32.015 *L 0.00021 *D AND2XL
*I *224:B I *C 5.7 14.915 *L 0.00021 *D AND2XL
*I *209:B I *C 5.9 11.495 *L 0.00021 *D AND2XL
*I *213:B I *C 5.9 23.465 *L 0.00021 *D AND2XL
*I *221:B I *C 5.9 9.785 *L 0.00021 *D AND2XL
*I *230:B I *C 7.5 6.365 *L 0.00021 *D AND2XL
*I *226:B I *C 6.5 26.885 *L 0.00021 *D AND2XL
*I *212:B I *C 6.7 20.045 *L 0.00021 *D AND2XL
*I *214:B I *C 11.1 6.365 *L 0.00021 *D AND2XL
*I *227:B I *C 18.3 6.365 *L 0.00021 *D AND2XL
*I *229:B I *C 21.1 6.365 *L 0.00021 *D AND2XL

*CAP
1 *1:2 5.04326e-05
2 *1:3 0.000574932
3 *1:4 6.105e-05
4 *1:5 0.000574932
5 *1:6 0.000111483
6 *1:7 9.03998e-05
7 *1:8 0.000111483
8 *1:9 3.80204e-05
9 *1:10 7.704e-05
10 *1:11 2.01731e-05
11 *1:12 9.06633e-05
12 *1:13 0.000205568
13 *1:14 0.000234611
14 *1:15 2.01731e-05
15 *1:16 9.04689e-05
16 *1:17 0.000205568
17 *1:18 0.000234611
18 *1:20 3.02267e-05
19 *1:21 3.80204e-05
20 *1:22 3.85572e-05
21 *1:23 3.02267e-05
22 *1:24 2.57765e-05
23 *1:25 0.000143773
24 *1:26 0.000101378
25 *1:27 2.01731e-05
26 *1:28 0.000117632
27 *1:29 2.06334e-05
28 *1:30 4.17078e-05
29 *1:31 5.94111e-05
30 *1:32 2.01731e-05
31 *1:33 1.03167e-05
32 *1:34 2.06334e-05
33 *1:35 1.01634e-05
34 *1:36 0.00076716
35 *1:39 5.37554e-05
36 *1:42 0.00076716
37 *1:43 3.2036e-05
38 *1:44 2.17193e-05
39 *1:45 0.000142364
40 *1:46 1.03167e-05
41 *1:48 7.19168e-05
42 *1:49 0.000113402
43 *1:51 0.00019656
44 *1:52 9.30755e-05
45 *1:53 0.00020742
46 *1:54 2.03268e-05
47 *1:55 5.1352e-05
48 *1:56 7.33028e-05
49 *1:58 0.000132659
50 *1:59 6.24431e-05
51 *1:60 0.000213432
52 *1:61 0.000146606
53 *1:62 0.000274412
54 *1:63 2.60054e-05
55 *1:64 0.000288867
56 *1:65 5.32124e-05
57 *1:66 0.000203268
58 *1:67 2.60054e-05
59 *209:B 2.60054e-05
60 *1:69 0.0001857
61 *1:71 3.1493e-05
62 *1:72 2.03268e-05
63 *1:73 0.000130027
64 *221:B 2.60054e-05
65 *1:75 3.92107e-05
66 *1:76 7.27598e-05
67 *1:77 0.000117024
68 *230:B 0.000130027
69 *226:B 3.92107e-05
70 *1:80 6.19001e-05
71 *1:81 0.000129377
72 *1:83 9.03689e-05
73 *1:84 9.03689e-05
74 *1:85 0.000155382
75 *1:86 0.000155382
76 *1:87 3.8358e-05
77 *1:88 0.000104022
78 *1:89 9.03689e-05
79 *1:90 1.01634e-05
80 *1:91 0.00014238
81 *1:92 1.01634e-05
82 *1:93 0.00014238
83 *1:95 0.000181388
84 *1:96 0.000181388
85 *1:97 0.000101461
86 *1:98 0.000228635
87 *1:99 0.000139527
88 *1:100 1.98037e-05
89 *1:101 1.98037e-05
90 *1:102 1.98037e-05
91 *1:103 1.98037e-05
92 *1:105 3.80527e-05
93 *229:B 3.80527e-05

*RES
1 *1:105 *229:B 1.98226
2 *1:103 *1:105 8
3 *1:102 *227:B 8
4 *1:101 *1:103 1.24113
5 *1:100 *1:102 1.24113
6 *1:99 *1:101 8
7 *1:98 *1:100 8
8 *1:98 *1:99 7.26828
9 *1:97 *1:98 4.6331
10 *1:96 *1:97 0.635152
11 *1:95 *1:96 8.69155
12 *1:93 *1:95 0.635152
13 *1:92 *214:B 8
14 *1:91 *1:93 6.6858
15 *1:90 *1:92 0.622019
16 *1:89 *1:91 0.635152
17 *1:88 *1:90 8
18 *1:88 *1:89 4.01148
19 *1:87 *1:88 1.33716
20 *1:86 *1:87 0.635152
21 *1:85 *1:86 7.35439
22 *1:84 *1:85 0.635152
23 *1:83 *1:84 4.01148
24 *1:81 *1:83 0.635152
25 *1:80 *212:B 8
26 *1:77 *1:81 6.01722
27 *1:76 *1:80 3.73904
28 *1:75 *226:B 2.01199
29 *1:73 *230:B 6.6858
30 *1:72 *1:77 8
31 *1:71 *1:76 0.655971
32 *1:69 *1:75 8
33 *1:67 *221:B 1.33716
34 *1:66 *1:73 8
35 *1:66 *1:72 1.24404
36 *1:65 *1:71 1.24635
37 *1:64 *213:B 8
38 *1:64 *1:69 11.2171
39 *1:63 *209:B 1.33716
40 *1:62 *1:67 8
41 *1:62 *1:66 11.1963
42 *1:61 *1:65 1.96791
43 *1:61 *1:64 6.23173
44 *1:60 *1:63 8
45 *1:60 *1:62 5.59817
46 *1:59 *1:61 0.655971
47 *1:58 *1:60 7.46422
48 *1:56 *1:59 3.11586
49 *1:55 *1:58 0.654757
50 *1:54 *224:B 8
51 *1:53 *1:56 1.31194
52 *1:52 *1:55 2.48808
53 *1:52 *1:54 1.24404
54 *1:51 *1:53 11.2171
55 *1:49 *1:52 1.96427
56 *1:48 *1:51 0.655971
57 *1:46 *223:B 8
58 *1:45 *1:49 4.97615
59 *1:45 *1:48 3.73269
60 *1:44 *235:A 8
61 *1:43 *1:46 0.623173
62 *1:42 *1:45 8
63 *1:39 *1:44 1.31194
64 *1:39 *1:43 1.31194
65 *1:36 *1:42 39.4463
66 *1:35 *143:Y 8
67 *1:34 *210:B 8
68 *1:33 *1:39 0.623173
69 *1:32 *228:B 8
70 *1:31 *211:B 8
71 *1:30 *1:36 8
72 *1:30 *1:35 0.622019
73 *1:29 *1:34 1.24635
74 *1:28 *1:33 8
75 *1:27 *1:32 1.24305
76 *1:26 *1:31 3.72338
77 *1:26 *1:30 1.96121
78 *1:25 *1:29 8
79 *1:25 *1:28 6.03597
80 *1:24 *1:27 8
81 *1:23 *1:26 0.653225
82 *1:22 *1:25 1.34133
83 *1:21 *1:24 1.33066
84 *1:20 *1:23 1.24113
85 *1:18 *1:22 0.63713
86 *1:17 *1:21 0.632063
87 *1:16 *1:20 0.653225
88 *1:15 *225:B 8
89 *1:14 *1:18 11.4013
90 *1:13 *1:17 9.97994
91 *1:12 *1:16 4.96884
92 *1:11 *1:15 1.24305
93 *1:10 *1:14 0.63713
94 *1:9 *1:13 0.632063
95 *1:8 *1:12 0.654237
96 *1:7 *1:11 8
97 *1:7 *1:10 3.33198
98 *1:7 *1:9 1.33066
99 *1:6 *1:8 6.21525
100 *1:5 *1:7 8
101 *1:4 *1:6 0.654237
102 *1:3 *1:5 35.4269
103 *1:2 *1:4 3.10763
104 *1:1 *1:3 8
105 *1:1 *1:2 8
106 *1:0 *1:1 0.190483
*END

*D_NET *2 0.000153984

*CONN
*I *143:A I *C 16.7 16.815 *L 0.000801 *D INVX2
*I *144:Y O *C 17.7 17.005 *L 0 *D INVXL

*CAP
1 *2:1 3.18197e-05
2 *2:2 5.16234e-05
3 *2:3 1.98037e-05
4 *2:4 2.53685e-05
5 *144:Y 2.53685e-05

*RES
1 *2:4 *144:Y 1.32151
2 *2:3 *2:4 8
3 *2:2 *2:3 1.24113
4 *2:1 *2:2 1.96274
5 *143:A *2:1 8
*END

*D_NET *3 0.0161898

*CONN
*I *146:CK I *C 6.505 8.22 *L 0.00021 *D SDFFQX1
*I *163:CK I *C 11.505 8.22 *L 0.00021 *D SDFFQX1
*I *185:CK I *C 17.105 8.22 *L 0.00021 *D SDFFQX1
*I *148:CK I *C 9.105 11.64 *L 0.00021 *D SDFFQX1
*I *156:CK I *C 8.105 15.06 *L 0.00021 *D SDFFQX1
*I *219:CK I *C 22.305 8.22 *L 0.00021 *D SDFFQX1
*I *161:CK I *C 6.505 18.48 *L 0.00021 *D SDFFQX1
*I *184:CK I *C 7.505 23.32 *L 0.00021 *D SDFFQX1
*I *174:CK I *C 14.105 6.22 *L 0.00021 *D SDFFQX1
*I *149:CK I *C 11.505 25.32 *L 0.00021 *D SDFFQX1
*I *173:CK I *C 6.505 25.32 *L 0.00021 *D SDFFQX1
*I *201:CK I *C 21.105 11.64 *L 0.00021 *D SDFFQX1
*P *3 I *C 7.3 38.38 *L 0
*I *155:CK I *C 12.305 30.16 *L 0.00021 *D SDFFQX1
*I *145:CK I *C 6.705 30.16 *L 0.00021 *D SDFFQX1
*I *162:CK I *C 16.705 25.32 *L 0.00021 *D SDFFQX1
*I *183:CK I *C 20.905 30.16 *L 0.00021 *D SDFFQX1
*I *203:CK I *C 21.905 25.32 *L 0.00021 *D SDFFQX1
*I *232:CK I *C 21.305 21.9 *L 0.00021 *D SDFFQX1
*I *157:CK I *C 21.505 18.48 *L 0.00021 *D SDFFQX1
*I *147:CK I *C 13.505 23.32 *L 0.00021 *D SDFFQX1
*I *176:CK I *C 18.305 28.74 *L 0.00021 *D SDFFQX1
*I *231:CK I *C 16.705 19.9 *L 0.00021 *D SDFFQX1
*I *204:CK I *C 11.505 19.9 *L 0.00021 *D SDFFQX1
*I *150:CK I *C 11.305 16.48 *L 0.00021 *D SDFFQX1
*I *154:CK I *C 13.305 15.06 *L 0.00021 *D SDFFQX1
*I *188:CK I *C 20.705 16.48 *L 0.00021 *D SDFFQX1
*I *252:CK I *C 17.505 13.06 *L 0.00021 *D SDFFQX1
*I *190:CK I *C 20.705 15.06 *L 0.00021 *D SDFFQX1

*CAP
1 *3:1 1.72584e-05
2 *3:2 6.03954e-05
3 *146:CK 8.31387e-06
4 *3:4 0.000330513
5 *3:5 0.000201261
6 *3:6 0.000446277
7 *3:7 0.000393578
8 *3:8 0.000369101
9 *3:9 1.72584e-05
10 *3:10 0.000393643
11 *3:11 0.000124709
12 *3:12 0.000484134
13 *3:13 0.000105103
14 *163:CK 8.31387e-06
15 *3:16 0.000468651
16 *3:17 6.03954e-05
17 *3:18 0.000124709
18 *3:19 0.000342505
19 *3:20 1.72584e-05
20 *3:21 0.000105103
21 *3:22 0.000393891
22 *3:23 6.04313e-05
23 *3:24 6.03954e-05
24 *3:25 1.72584e-05
25 *3:26 6.02562e-05
26 *3:27 0.000190412
27 *185:CK 8.31387e-06
28 *3:30 2.18072e-05
29 *3:31 0.000393891
30 *3:32 2.18162e-05
31 *3:33 6.04313e-05
32 *3:34 1.72584e-05
33 *148:CK 8.31387e-06
34 *3:37 1.72584e-05
35 *3:38 0.000190412
36 *3:39 2.18072e-05
37 *3:40 0.000704731
38 *3:41 0.000330737
39 *3:42 2.18162e-05
40 *3:43 1.72584e-05
41 *156:CK 8.31387e-06
42 *219:CK 8.31387e-06
43 *3:48 2.17724e-05
44 *3:49 2.10932e-05
45 *3:50 0.000437407
46 *3:51 0.00035648
47 *3:52 0.000420839
48 *3:53 6.04313e-05
49 *3:54 1.72584e-05
50 *161:CK 8.31387e-06
51 *3:57 2.17724e-05
52 *3:58 2.49348e-05
53 *3:59 2.0197e-05
54 *3:60 0.000755317
55 *3:61 3.46879e-05
56 *3:62 0.000343609
57 *3:63 1.72584e-05
58 *3:64 1.72584e-05
59 *184:CK 8.31387e-06
60 *3:67 1.72584e-05
61 *174:CK 1.27861e-05
62 *3:69 2.0197e-05
63 *3:70 0.00056201
64 *3:71 1.72584e-05
65 *3:72 2.11057e-05
66 *3:73 0.000510454
67 *3:74 0.000126567
68 *149:CK 8.31387e-06
69 *173:CK 8.31387e-06
70 *201:CK 8.31387e-06
71 *3 8.9445e-06
72 *3:82 0.00013743
73 *3:83 8.37105e-05
74 *155:CK 8.31387e-06
75 *3:86 2.49473e-05
76 *3:87 0.000343075
77 *3:88 1.72584e-05
78 *3:89 0.000319041
79 *3:90 1.72584e-05
80 *3:91 8.37105e-05
81 *145:CK 1.27861e-05
82 *3:93 3.46415e-05
83 *3:94 0.000239653
84 *162:CK 8.31387e-06
85 *3:97 0.000383177
86 *3:98 2.18162e-05
87 *183:CK 8.31387e-06
88 *3:101 4.749e-05
89 *3:102 1.72584e-05
90 *3:103 0.000449917
91 *3:104 0.000276177
92 *3:105 0.000343609
93 *3:106 2.18162e-05
94 *3:107 4.749e-05
95 *203:CK 8.31387e-06
96 *3:110 0.000223681
97 *232:CK 1.27861e-05
98 *3:112 0.000201261
99 *3:113 0.000150434
100 *3:114 0.00020202
101 *3:115 0.000150533
102 *3:116 1.72584e-05
103 *3:117 1.72584e-05
104 *3:118 4.749e-05
105 *157:CK 8.31387e-06
106 *3:120 0.000115787
107 *3:121 3.46699e-05
108 *3:122 0.000150434
109 *3:123 1.72584e-05
110 *3:124 1.72584e-05
111 *147:CK 8.31387e-06
112 *176:CK 8.31387e-06
113 *3:129 4.749e-05
114 *3:130 0.000266129
115 *3:131 3.46699e-05
116 *3:132 1.72584e-05
117 *231:CK 8.31387e-06
118 *204:CK 8.31387e-06
119 *3:137 0.000130356
120 *3:138 0.000266129
121 *3:139 1.72584e-05
122 *150:CK 8.31387e-06
123 *3:142 0.000243433
124 *3:143 1.72584e-05
125 *154:CK 8.31387e-06
126 *3:146 0.000122021
127 *188:CK 1.27861e-05
128 *252:CK 8.31387e-06
129 *190:CK 1.27861e-05

*RES
1 *3:146 *190:CK 8
2 *3:143 *252:CK 8
3 *3:143 *3:148 1.07147
4 *3:142 *188:CK 8
5 *3:142 *3:146 5.62287
6 *3:139 *154:CK 8
7 *3:139 *3:144 1.07147
8 *3:138 *3:143 8
9 *3:137 *3:142 6.24674
10 *3:132 *150:CK 8
11 *3:132 *3:140 1.07147
12 *3:131 *3:139 8
13 *3:130 *3:138 13.1236
14 *3:129 *3:137 8
15 *3:124 *204:CK 8
16 *3:124 *3:135 1.07147
17 *3:123 *231:CK 8
18 *3:123 *3:133 1.07147
19 *3:122 *3:132 8
20 *3:121 *3:131 1.31247
21 *3:120 *3:130 8
22 *3:118 *3:129 1.96806
23 *3:117 *176:CK 8
24 *3:117 *3:127 1.07147
25 *3:116 *147:CK 8
26 *3:116 *3:125 1.07147
27 *3:115 *3:124 8
28 *3:114 *3:123 8
29 *3:113 *3:122 7.21859
30 *3:112 *3:121 8
31 *3:112 *3:120 6.26404
32 *3:110 *157:CK 8
33 *3:110 *3:118 8
34 *3:107 *3:117 8
35 *3:106 *3:116 8
36 *3:105 *3:115 7.21994
37 *3:105 *3:114 9.84537
38 *3:104 *3:113 8
39 *3:104 *3:112 5.01123
40 *3:103 *232:CK 8
41 *3:103 *3:110 10.6189
42 *3:102 *203:CK 8
43 *3:102 *3:108 1.07147
44 *3:101 *3:107 1.96806
45 *3:98 *3:106 0.656358
46 *3:97 *3:105 8
47 *3:97 *3:104 10.6443
48 *3:94 *3:103 11.8682
49 *3:93 *3:102 8
50 *3:91 *3:101 8
51 *3:90 *183:CK 8
52 *3:90 *3:99 1.07147
53 *3:89 *3:98 8
54 *3:89 *3:97 11.2696
55 *3:88 *162:CK 8
56 *3:88 *3:95 1.07147
57 *3:87 *3:94 8
58 *3:87 *3:93 1.31204
59 *3:86 *145:CK 8
60 *3:83 *3:91 4.38573
61 *3:82 *3:90 8
62 *3:74 *3:89 6.88699
63 *3:73 *3:88 8
64 *3:73 *3:87 15.7455
65 *3:72 *3:86 0.624279
66 *3:71 *155:CK 8
67 *3:71 *3:84 1.07147
68 *3:70 *3:83 8
69 *3:70 *3:82 6.5602
70 *3:69 *3 8
71 *3:67 *201:CK 8
72 *3:67 *3:79 1.07147
73 *3:64 *173:CK 8
74 *3:64 *3:77 1.07147
75 *3:63 *149:CK 8
76 *3:63 *3:75 1.07147
77 *3:62 *3:74 8
78 *3:62 *3:73 9.84537
79 *3:61 *3:72 8
80 *3:60 *3:71 8
81 *3:60 *3:70 21.6571
82 *3:59 *3:69 0.654788
83 *3:58 *174:CK 8
84 *3:57 *3:67 8
85 *3:54 *184:CK 8
86 *3:54 *3:65 1.07147
87 *3:53 *3:64 8
88 *3:52 *3:63 8
89 *3:52 *3:62 7.21994
90 *3:51 *3:61 1.31272
91 *3:51 *3:60 16.409
92 *3:50 *3:59 8
93 *3:49 *3:58 0.624516
94 *3:48 *3:57 0.655659
95 *3:43 *161:CK 8
96 *3:43 *3:55 1.07147
97 *3:42 *3:54 8
98 *3:41 *3:53 2.62543
99 *3:41 *3:52 13.7835
100 *3:40 *3:51 8
101 *3:40 *3:50 26.9474
102 *3:39 *3:49 8
103 *3:38 *3:48 8
104 *3:37 *219:CK 8
105 *3:37 *3:46 1.07147
106 *3:34 *156:CK 8
107 *3:34 *3:44 1.07147
108 *3:33 *3:43 8
109 *3:32 *3:42 0.656358
110 *3:31 *3:41 8
111 *3:31 *3:40 15.6522
112 *3:30 *3:39 0.656235
113 *3:27 *3:38 10.6552
114 *3:26 *3:37 8
115 *3:25 *148:CK 8
116 *3:25 *3:35 1.07147
117 *3:24 *3:34 8
118 *3:23 *3:33 2.62543
119 *3:22 *3:32 8
120 *3:22 *3:31 6.88699
121 *3:21 *3:30 8
122 *3:20 *185:CK 8
123 *3:20 *3:28 1.07147
124 *3:19 *3:27 8
125 *3:19 *3:26 2.62264
126 *3:18 *3:25 8
127 *3:17 *3:24 2.62494
128 *3:16 *3:23 8
129 *3:16 *3:22 15.6522
130 *3:13 *3:21 5.63764
131 *3:12 *3:20 8
132 *3:12 *3:19 14.4251
133 *3:11 *3:18 5.90612
134 *3:10 *3:17 8
135 *3:10 *3:16 11.2729
136 *3:9 *163:CK 8
137 *3:9 *3:14 1.07147
138 *3:8 *3:13 8
139 *3:8 *3:12 9.84353
140 *3:7 *3:11 8
141 *3:7 *3:10 11.2753
142 *3:6 *3:9 8
143 *3:6 *3:8 8.53106
144 *3:5 *3:7 11.2753
145 *3:4 *3:6 13.7809
146 *3:4 *3:5 8
147 *3:2 *3:4 2.62494
148 *3:1 *146:CK 8
149 *3:1 *3:2 8
150 *3:0 *3:1 1.07147
*END

*D_NET *4 0.00915923

*CONN
*I *267:A I *C 14.9 18.145 *L 0.000801 *D INVX2
*I *170:B I *C 20.365 18.215 *L 0.000392 *D NOR2BX1
*I *205:B0 I *C 15.56 9.95 *L 0.000212 *D AOI211XL
*I *261:B I *C 19.365 14.795 *L 0.000392 *D NOR2BX1
*I *175:B0 I *C 13.76 13.37 *L 0.000212 *D AOI211XL
*I *153:B I *C 20.365 23.585 *L 0.000392 *D NOR2BX1
*I *171:B0 I *C 9.36 13.37 *L 0.000212 *D AOI211XL
*I *243:B0 I *C 22.36 23.63 *L 0.000212 *D AOI211XL
*I *172:B0 I *C 14.96 28.43 *L 0.000212 *D AOI211XL
*I *245:B0 I *C 13.16 21.59 *L 0.000212 *D AOI211XL
*I *152:B I *C 9.365 9.905 *L 0.000392 *D NOR2BX1
*I *244:B0 I *C 21.36 9.95 *L 0.000212 *D AOI211XL
*I *202:B0 I *C 9.36 21.59 *L 0.000212 *D AOI211XL
*I *194:B0 I *C 20.36 27.05 *L 0.000212 *D AOI211XL
*P *4 I *C 9.5 38.38 *L 0
*I *151:B I *C 9.565 28.475 *L 0.000392 *D NOR2BX1

*CAP
1 *4:2 3.92107e-05
2 *4:4 0.000246879
3 *4:5 0.000399515
4 *4:6 0.000310774
5 *4:7 0.000526151
6 *4:8 0.000244765
7 *4:9 0.000103106
8 *4:10 0.000149544
9 *4:11 0.000371401
10 *4:12 0.000130702
11 *4:13 0.000117024
12 *4:14 0.000292509
13 *4:16 0.000180813
14 *4:17 1.24167e-05
15 *4:18 0.000143119
16 *4:19 0.000403084
17 *4:20 0.000193105
18 *4:21 0.000292509
19 *4:24 6.09746e-05
20 *4:25 5.16274e-05
21 *4:26 3.85572e-05
22 *4:27 0.00028606
23 *4:28 1.01634e-05
24 *4:29 0.000193105
25 *4:30 0.000128883
26 *4:31 2.97056e-05
27 *4:32 6.53512e-05
28 *4:33 0.000222194
29 *4:34 2.03268e-05
30 *4:35 1.01634e-05
31 *4:37 0.000128883
32 *4:38 4.03461e-05
33 *4:39 0.000126842
34 *4:41 3.85572e-05
35 *4:42 2.06334e-05
36 *4:43 0.00020847
37 *4:44 2.06334e-05
38 *4:45 0.000193105
39 *4:48 6.15809e-05
40 *4:50 0.000126842
41 *4:51 0.000116979
42 *4:52 2.06334e-05
43 *4:53 6.46977e-05
44 *4:54 2.06334e-05
45 *4:55 0.000172778
46 *4:59 8.17539e-05
47 *4:60 0.000247546
48 *4:61 0.000116979
49 *4:63 5.22809e-05
50 *4:66 8.17539e-05
51 *4:67 0.000247546
52 *4:68 0.000234611
53 *4:69 1.03167e-05
54 *4:70 9.18405e-05
55 *4:72 0.000222194
56 *4:73 1.03167e-05
57 *4:74 7.06057e-05
58 *4:75 2.06334e-05
59 *4:78 0.000528069
60 *4 0.000507435

*RES
1 *4:78 *151:B 8
2 *4:78 *4 32.2288
3 *4:75 *4:78 1.24635
4 *4:74 *194:B0 8
5 *4:73 *202:B0 8
6 *4:72 *4:75 8
7 *4:70 *4:74 4.35068
8 *4:69 *4:73 0.623173
9 *4:68 *4:72 11.4013
10 *4:67 *244:B0 8
11 *4:66 *4:70 1.30847
12 *4:63 *4:69 8
13 *4:61 *4:68 0.63713
14 *4:60 *4:67 15.5141
15 *4:59 *4:66 3.72915
16 *4:55 *152:B 8
17 *4:54 *245:B0 8
18 *4:53 *4:63 2.68265
19 *4:52 *172:B0 8
20 *4:51 *4:61 5.36531
21 *4:50 *4:60 8
22 *4:48 *4:59 1.30847
23 *4:47 *243:B0 8
24 *4:47 *4:57 1.07147
25 *4:45 *171:B0 8
26 *4:45 *4:55 10.5743
27 *4:44 *4:54 1.24635
28 *4:43 *4:53 0.63713
29 *4:42 *4:52 1.24635
30 *4:41 *4:51 0.63713
31 *4:39 *4:50 6.60753
32 *4:38 *153:B 8
33 *4:38 *4:48 2.4861
34 *4:37 *4:47 8
35 *4:35 *175:B0 8
36 *4:34 *4:45 1.24404
37 *4:33 *4:44 8
38 *4:33 *4:43 10.0599
39 *4:32 *4:42 8
40 *4:32 *4:41 1.34133
41 *4:31 *261:B 8
42 *4:31 *4:39 8
43 *4:30 *4:38 8
44 *4:30 *4:37 6.65329
45 *4:29 *205:B0 8
46 *4:28 *4:35 0.622019
47 *4:27 *4:34 8
48 *4:26 *4:33 1.34133
49 *4:25 *4:32 2.01199
50 *4:24 *4:31 1.86169
51 *4:21 *4:30 8
52 *4:20 *4:29 11.8184
53 *4:19 *4:28 8
54 *4:19 *4:27 14.7088
55 *4:18 *4:26 0.63713
56 *4:17 *4:25 0.63713
57 *4:16 *4:24 1.95967
58 *4:15 *170:B 8
59 *4:15 *4:22 0.190483
60 *4:14 *4:21 18.0242
61 *4:13 *4:20 8
62 *4:13 *4:19 6.01722
63 *4:12 *4:18 6.70663
64 *4:11 *4:17 8
65 *4:10 *4:16 9.31374
66 *4:9 *4:15 8
67 *4:9 *4:14 8
68 *4:8 *4:13 8
69 *4:7 *4:12 8
70 *4:7 *4:11 22.4342
71 *4:6 *4:10 8
72 *4:6 *4:9 5.32263
73 *4:5 *4:8 14.9348
74 *4:5 *4:7 9.34759
75 *4:4 *4:6 10.6879
76 *4:4 *4:5 8
77 *4:2 *4:4 2.01199
78 *4:1 *267:A 8
79 *4:1 *4:2 8
80 *4:0 *4:1 1.07147
*END

*D_NET *5 0.00210031

*CONN
*I *233:B I *C 26.3 14.725 *L 0.000393 *D NOR4BX1
*I *234:AN I *C 26.7 16.625 *L 0.00021 *D NOR4BX1
*P *5 I *C 42 17 *L 0

*CAP
1 *5:1 5.94111e-05
2 *5:2 8.02572e-05
3 *5:3 5.05516e-05
4 *5:4 5.95035e-05
5 *5:5 2.97979e-05
6 *5:7 0.000890107
7 *5:8 0.000890107
8 *5:9 1.02731e-05
9 *5:10 2.02893e-05
10 *5 1.00162e-05

*RES
1 *5:10 *5 0.632988
2 *5:9 *5:10 0.649219
3 *5:8 *5:9 8
4 *5:7 *5:8 49.559
5 *5:5 *5:7 8
6 *5:4 *234:AN 8
7 *5:4 *5:5 1.86217
8 *5:3 *5:4 1.86169
9 *5:2 *5:3 1.30645
10 *5:1 *5:2 3.72338
11 *233:B *5:1 8
*END

*D_NET *6 0.00240485

*CONN
*I *234:B I *C 26.3 16.815 *L 0.000393 *D NOR4BX1
*I *233:AN I *C 26.7 14.915 *L 0.00021 *D NOR4BX1
*P *6 I *C 42 19.2 *L 0

*CAP
1 *6:1 9.90186e-06
2 *6:2 9.90186e-06
3 *6:3 5.07369e-05
4 *6:4 5.07369e-05
5 *6:5 0.000129555
6 *6:6 6.02421e-05
7 *6:7 9.0159e-05
8 *6:8 2.57765e-05
9 *6:9 5.05516e-05
10 *6:10 3.80204e-05
11 *6:11 2.97056e-05
12 *6:12 0.000633839
13 *6:14 0.000631901
14 *6:15 0.000238112
15 *6:16 0.000227806
16 *6:17 6.39498e-05
17 *6 6.39498e-05

*RES
1 *6:17 *6 4.04139
2 *6:16 *6:17 8
3 *6:15 *6:16 13.7811
4 *6:14 *6:15 0.623432
5 *6:12 *6:14 33.7728
6 *6:11 *233:AN 8
7 *6:10 *6:12 0.632063
8 *6:9 *6:11 1.86169
9 *6:8 *6:10 1.33066
10 *6:7 *6:9 1.30645
11 *6:6 *6:8 8
12 *6:5 *6:7 4.34395
13 *6:5 *6:6 3.72771
14 *6:4 *6:5 8
15 *6:3 *6:4 2.64301
16 *6:2 *6:3 8
17 *6:1 *6:2 0.620564
18 *234:B *6:1 8
*END

*D_NET *7 0.000981017

*CONN
*P *7 O *C 0 26.1 *L 0
*I *226:Y O *C 7.13 26.555 *L 0 *D AND2XL

*CAP
1 *7 0.00020749
2 *7:1 0.00022154
3 *7:2 0.000262385
4 *7:3 0.000248334
5 *7:4 2.06334e-05
6 *7:5 2.06334e-05

*RES
1 *7:5 *226:Y 8
2 *7:4 *7:5 1.24635
3 *7:3 *7:4 8
4 *7:2 *7:3 12.7426
5 *7:1 *7:2 0.720963
6 *7 *7:1 10.6468
*END

*D_NET *8 0.000732836

*CONN
*P *8 O *C 7.3 0 *L 0
*I *230:Y O *C 8.13 6.035 *L 0 *D AND2XL

*CAP
1 *8 0.000303298
2 *8:1 0.000346091
3 *8:2 6.31201e-05
4 *8:3 2.03268e-05

*RES
1 *8:3 *230:Y 8
2 *8:2 *8:3 1.24404
3 *8:1 *8:2 2.61903
4 *8 *8:1 18.5623
*END

*D_NET *9 0.00075448

*CONN
*P *9 O *C 9.5 0 *L 0
*I *206:Y O *C 10.325 6.075 *L 0 *D NOR2XL

*CAP
1 *9 5.20109e-05
2 *9:1 5.20109e-05
3 *9:2 0.000325229
4 *9:3 0.000325229

*RES
1 *9:3 *206:Y 8
2 *9:2 *9:3 19.9046
3 *9:1 *9:2 8
4 *9 *9:1 2.67432
*END

*D_NET *10 0.00075448

*CONN
*P *10 O *C 11.7 0 *L 0
*I *214:Y O *C 11.73 6.035 *L 0 *D AND2XL

*CAP
1 *10 2.60054e-05
2 *10:1 2.60054e-05
3 *10:2 0.000325229
4 *10:3 0.000325229
5 *10:4 2.60054e-05
6 *214:Y 2.60054e-05

*RES
1 *10:4 *214:Y 1.33716
2 *10:3 *10:4 8
3 *10:2 *10:3 19.9046
4 *10:1 *10:2 8
5 *10 *10:1 1.33716
*END

*D_NET *11 0.000780486

*CONN
*I *207:Y O *C 12.925 6.075 *L 0 *D NOR2XL
*P *11 O *C 13.9 0 *L 0

*CAP
1 *11:0 0.000325229
2 *11:1 0.000325229
3 *11:2 6.50136e-05
4 *11 6.50136e-05

*RES
1 *11:2 *11 3.3429
2 *11:1 *207:Y 8
3 *11:0 *11:2 8
4 *11:0 *11:1 19.9046
*END

*D_NET *12 0.00099685

*CONN
*P *12 O *C 16.1 0 *L 0
*I *227:Y O *C 18.93 6.035 *L 0 *D AND2XL

*CAP
1 *12 0.000128435
2 *12:1 0.000150632
3 *12:2 7.29343e-05
4 *12:3 5.07369e-05
5 *12:4 0.000297056
6 *12:5 0.000297056

*RES
1 *12:5 *227:Y 8
2 *12:4 *12:5 18.6169
3 *12:3 *12:4 8
4 *12:2 *12:3 2.64301
5 *12:1 *12:2 1.15632
6 *12 *12:1 6.64667
*END

*D_NET *13 0.000903727

*CONN
*P *13 O *C 18.3 0 *L 0
*I *208:Y O *C 20.125 6.075 *L 0 *D NOR2XL

*CAP
1 *13 0.000114158
2 *13:1 0.000114158
3 *13:2 1.98037e-05
4 *13:3 3.02267e-05
5 *13:4 9.95397e-05
6 *13:5 9.95397e-05
7 *13:6 0.000218362
8 *13:7 0.000207939

*RES
1 *13:7 *208:Y 8
2 *13:6 *13:7 13.0318
3 *13:5 *13:6 0.653225
4 *13:4 *13:5 5.58507
5 *13:3 *13:4 0.653225
6 *13:2 *13:3 1.24113
7 *13:1 *13:2 8
8 *13 *13:1 5.94678
*END

*D_NET *14 0.000755668

*CONN
*P *14 O *C 20.5 0 *L 0
*I *229:Y O *C 21.73 6.035 *L 0 *D AND2XL

*CAP
1 *14 9.74551e-05
2 *14:1 0.000128724
3 *14:2 0.000229306
4 *14:3 0.000229306
5 *14:4 5.10727e-05
6 *14:5 1.98037e-05

*RES
1 *14:5 *229:Y 8
2 *14:4 *14:5 1.24113
3 *14:3 *14:4 1.95967
4 *14:2 *14:3 12.4113
5 *14:1 *14:2 1.95967
6 *14 *14:1 6.10765
*END

*D_NET *15 0.000944802

*CONN
*P *15 O *C 0 8.5 *L 0
*I *221:Y O *C 6.53 9.455 *L 0 *D AND2XL

*CAP
1 *15 0.000375453
2 *15:1 0.00038488
3 *15:2 3.54324e-05
4 *15:3 2.60054e-05
5 *15:4 3.04902e-05
6 *15:5 4.11886e-05
7 *15:6 3.10252e-05
8 *15:7 2.03268e-05

*RES
1 *15:7 *221:Y 8
2 *15:6 *15:7 1.24404
3 *15:5 *15:6 0.654757
4 *15:4 *15:5 1.86606
5 *15:3 *15:4 8
6 *15:2 *15:3 1.33716
7 *15:1 *15:2 0.484721
8 *15 *15:1 19.3053
*END

*D_NET *16 0.000898833

*CONN
*P *16 O *C 0 10.7 *L 0
*I *209:Y O *C 6.53 11.825 *L 0 *D AND2XL

*CAP
1 *16 0.000258429
2 *16:1 0.000273057
3 *16:2 0.000170661
4 *16:3 0.000156033
5 *16:4 2.03268e-05
6 *16:5 2.03268e-05

*RES
1 *16:5 *209:Y 8
2 *16:4 *16:5 1.24404
3 *16:3 *16:4 8
4 *16:2 *16:3 8.02297
5 *16:1 *16:2 0.752153
6 *16 *16:1 13.288
*END

*D_NET *17 0.000817871

*CONN
*I *200:Y O *C 6.325 12.915 *L 0 *D NOR2XL
*P *17 O *C 0 12.9 *L 0

*CAP
1 *17:3 0.00014303
2 *17:4 0.000150506
3 *17:5 0.000265906
4 *17 0.000258429

*RES
1 *17:5 *17 13.288
2 *17:4 *17:5 0.384434
3 *17:3 *17:4 7.35439
4 *17:1 *17:3 8
5 *17:1 *200:Y 8
6 *17:0 *17:1 1.07147
*END

*D_NET *18 0.000803568

*CONN
*I *224:Y O *C 6.33 15.245 *L 0 *D AND2XL
*P *18 O *C 0 15.1 *L 0

*CAP
1 *18:3 0.00014303
2 *18:4 0.000143355
3 *18:5 0.000258754
4 *18 0.000258429

*RES
1 *18:5 *18 13.288
2 *18:4 *18:5 0.0167145
3 *18:3 *18:4 7.35439
4 *18:1 *18:3 8
5 *18:1 *224:Y 8
6 *18:0 *18:1 1.07147
*END

*D_NET *19 0.00122712

*CONN
*P *19 O *C 0 17.3 *L 0
*I *195:Y O *C 6.525 19.755 *L 0 *D NOR2XL

*CAP
1 *19 0.000272841
2 *19:1 0.000279703
3 *19:2 0.000163705
4 *19:3 0.000156843
5 *19:4 9.28502e-05
6 *19:5 0.00011457
7 *19:6 5.26694e-05
8 *19:7 4.18097e-05
9 *19:8 3.1493e-05
10 *19:9 2.06334e-05

*RES
1 *19:9 *195:Y 8
2 *19:8 *19:9 1.24635
3 *19:7 *19:8 0.655971
4 *19:6 *19:7 1.86952
5 *19:5 *19:6 1.31194
6 *19:4 *19:5 5.60855
7 *19:3 *19:4 8
8 *19:2 *19:3 8.04796
9 *19:1 *19:2 0.352098
10 *19 *19:1 14.0001
*END

*D_NET *20 0.000979988

*CONN
*P *20 O *C 0 19.5 *L 0
*I *212:Y O *C 7.33 19.715 *L 0 *D AND2XL

*CAP
1 *20 0.000455824
2 *20:1 0.000466607
3 *20:2 2.38532e-05
4 *20:3 1.30702e-05
5 *20:4 1.03167e-05
6 *20:5 1.03167e-05

*RES
1 *20:5 *212:Y 8
2 *20:4 *20:5 0.623173
3 *20:3 *20:4 8
4 *20:2 *20:3 0.670663
5 *20:1 *20:2 0.553297
6 *20 *20:1 23.3894
*END

*D_NET *21 0.000943671

*CONN
*I *196:Y O *C 7.125 22.045 *L 0 *D NOR2XL
*P *21 O *C 0 21.7 *L 0

*CAP
1 *21:3 0.000182983
2 *21:4 0.000198994
3 *21:5 0.000288852
4 *21 0.000272841

*RES
1 *21:5 *21 14.0001
2 *21:4 *21:5 0.821563
3 *21:3 *21:4 9.38929
4 *21:1 *21:3 8
5 *21:1 *196:Y 8
6 *21:0 *21:1 1.07147
*END

*D_NET *22 0.000861049

*CONN
*P *22 O *C 0 23.9 *L 0
*I *213:Y O *C 6.53 23.135 *L 0 *D AND2XL

*CAP
1 *22 0.000403543
2 *22:1 0.000407138
3 *22:2 1.66645e-05
4 *22:3 1.30702e-05
5 *22:4 1.03167e-05
6 *22:5 1.03167e-05

*RES
1 *22:5 *213:Y 8
2 *22:4 *22:5 0.623173
3 *22:3 *22:4 8
4 *22:2 *22:3 0.670663
5 *22:1 *22:2 0.184432
6 *22 *22:1 20.7067
*END

*D_NET *23 0.000666909

*CONN
*P *23 O *C 11.7 38.38 *L 0
*I *223:Y O *C 12.33 32.345 *L 0 *D AND2XL

*CAP
1 *23 3.09264e-05
2 *23:1 3.09264e-05
3 *23:2 0.000302528
4 *23:3 0.000302528

*RES
1 *23:3 *223:Y 8
2 *23:2 *23:3 19.8632
3 *23:1 *23:2 8
4 *23 *23:1 1.95614
*END

*D_NET *24 0.000625674

*CONN
*I *210:Y O *C 13.73 32.345 *L 0 *D AND2XL
*P *24 O *C 13.9 38.38 *L 0

*CAP
1 *24:1 0.000302528
2 *24:2 0.000302528
3 *24:3 1.03088e-05
4 *24 1.03088e-05

*RES
1 *24:3 *24 0.652046
2 *24:2 *24:3 8
3 *24:1 *24:2 19.8632
4 *210:Y *24:1 8
*END

*D_NET *25 0.000605056

*CONN
*I *197:Y O *C 16.125 32.305 *L 0 *D NOR2XL
*P *25 O *C 16.1 38.38 *L 0

*CAP
1 *25:1 0.000302528
2 *25:2 0.000302528

*RES
1 *25:2 *25 8
2 *25:1 *25:2 19.8632
3 *197:Y *25:1 8
*END

*D_NET *26 0.000619493

*CONN
*P *26 O *C 18.3 38.38 *L 0
*I *225:Y O *C 18.53 32.345 *L 0 *D AND2XL

*CAP
1 *26 1.03102e-05
2 *26:1 1.85584e-05
3 *26:2 8.24817e-06
4 *26:3 0.000291188
5 *26:4 0.000291188

*RES
1 *26:4 *225:Y 8
2 *26:3 *26:4 19.1696
3 *26:2 *26:3 8
4 *26:1 *26:2 0.521665
5 *26 *26:1 0.652081
*END

*D_NET *27 0.000600453

*CONN
*I *198:Y O *C 20.525 32.305 *L 0 *D NOR2XL
*P *27 O *C 20.5 38.38 *L 0

*CAP
1 *27:1 0.000300226
2 *27:2 0.000300226

*RES
1 *27:2 *27 8
2 *27:1 *27:2 19.7863
3 *198:Y *27:1 8
*END

*D_NET *28 0.000649152

*CONN
*I *228:Y O *C 22.33 32.345 *L 0 *D AND2XL
*P *28 O *C 22.7 38.38 *L 0

*CAP
1 *228:Y 2.57765e-05
2 *28:1 2.57765e-05
3 *28:2 0.000298799